Version 4.1
SHEET 1 880 740
WIRE -32 -32 -160 -32
WIRE 192 -32 48 -32
WIRE -272 64 -448 64
WIRE -240 64 -272 64
WIRE -160 64 -160 -32
WIRE -160 64 -176 64
WIRE -112 64 -160 64
WIRE 32 64 -32 64
WIRE 96 64 32 64
WIRE 192 64 192 -32
WIRE 192 64 160 64
WIRE 432 64 192 64
WIRE 496 64 432 64
WIRE -448 96 -448 64
WIRE 32 112 32 64
WIRE 432 112 432 64
WIRE 496 112 496 64
WIRE -448 224 -448 176
WIRE 432 224 432 176
WIRE -272 240 -272 64
WIRE -240 240 -272 240
WIRE 32 240 32 192
WIRE 32 240 -176 240
WIRE 432 336 432 288
WIRE 432 432 432 400
WIRE 432 544 432 496
WIRE 432 704 432 608
WIRE 496 704 496 176
WIRE 496 704 432 704
WIRE 496 720 496 704
FLAG 496 720 0
FLAG -448 224 0
SYMBOL cap 480 112 R0
SYMATTR InstName C1
SYMATTR Value 1n
SYMBOL diode 416 112 R0
SYMATTR InstName D1
SYMATTR Value 1N914
SYMBOL diode -240 80 R270
WINDOW 0 32 32 VTop 2
WINDOW 3 0 32 VBottom 2
SYMATTR InstName D2
SYMATTR Value 1N5817
SYMATTR Description Diode
SYMATTR Type diode
SYMBOL diode -176 224 R90
WINDOW 0 0 32 VBottom 2
WINDOW 3 32 32 VTop 2
SYMATTR InstName D3
SYMATTR Value 1N5817
SYMATTR Description Diode
SYMATTR Type diode
SYMBOL res -16 48 R90
WINDOW 0 0 56 VBottom 2
WINDOW 3 32 56 VTop 2
SYMATTR InstName R1
SYMATTR Value 10
SYMBOL res 64 -48 R90
WINDOW 0 0 56 VBottom 2
WINDOW 3 32 56 VTop 2
SYMATTR InstName R2
SYMATTR Value 3.9k
SYMBOL res 48 208 R180
WINDOW 0 36 76 Left 2
WINDOW 3 36 40 Left 2
SYMATTR InstName R3
SYMATTR Value 2.2
SYMBOL cap 160 48 R90
WINDOW 0 0 32 VBottom 2
WINDOW 3 32 32 VTop 2
SYMATTR InstName C2
SYMATTR Value 1.8n
SYMBOL voltage -448 80 R0
WINDOW 123 0 0 Left 0
WINDOW 39 0 0 Left 0
SYMATTR InstName V1
SYMATTR Value PULSE(0 10 0 25n 25n 5u 10u)
SYMBOL diode 416 224 R0
SYMATTR InstName D4
SYMATTR Value 1N914
SYMBOL diode 416 336 R0
SYMATTR InstName D5
SYMATTR Value 1N914
SYMBOL diode 416 432 R0
SYMATTR InstName D6
SYMATTR Value 1N914
SYMBOL diode 416 544 R0
SYMATTR InstName D7
SYMATTR Value 1N914
TEXT -480 296 Left 2 !.tran 100u
